Circuit: *load regulation

Ignoring empty pin current: Ix(u3:adj)
Ignoring empty pin current: Ix(u3:ven)

Date: Sat Nov 05 10:29:41 2022
Total elapsed time: 0.101 seconds.

tnom = 27
temp = 27
method = trap
totiter = 1006
traniter = 0
tranpoints = 0
accept = 0
rejected = 0
matrix size = 73
fillins = 21
solver = Normal
Thread vector: 6.4/4.7[3] 0.0/0.0[0] 2.2/2.3[1] 0.4/1.4[1]  2592/500
Matrix Compiler1: 3.92 KB object code size  3.0/1.4/[0.6]
Matrix Compiler2: 5.54 KB object code size  1.1/1.7/[0.5]

